Version 4.1
SHEET 1 1124 680
WIRE 624 -160 448 -160
WIRE 1008 -128 528 -128
WIRE 528 -96 528 -128
WIRE 448 -80 448 -160
WIRE 496 -80 448 -80
WIRE 624 -64 624 -160
WIRE 624 -64 560 -64
WIRE 736 -64 624 -64
WIRE -128 -48 -432 -48
WIRE 32 -48 -48 -48
WIRE 112 -48 32 -48
WIRE 240 -48 112 -48
WIRE 368 -48 320 -48
WIRE 496 -48 368 -48
WIRE -432 16 -432 -48
WIRE 368 16 368 -48
WIRE 32 48 32 32
WIRE 32 48 -16 48
WIRE 32 64 32 48
WIRE 1008 96 1008 -128
WIRE 1008 96 256 96
WIRE 1008 112 1008 96
WIRE -432 128 -432 16
WIRE 256 144 256 96
WIRE 32 160 32 144
WIRE 32 160 -176 160
WIRE 224 160 32 160
WIRE 336 176 288 176
WIRE 112 192 112 -48
WIRE 224 192 112 192
WIRE 32 208 32 160
WIRE 1008 208 1008 192
WIRE 1120 208 1008 208
WIRE -176 224 -176 160
WIRE -128 224 -176 224
WIRE -16 240 -16 48
WIRE -16 240 -64 240
WIRE 1008 240 1008 208
WIRE -128 256 -176 256
WIRE 32 304 32 272
WIRE 336 304 336 176
WIRE 336 304 32 304
WIRE 32 336 32 304
WIRE 256 400 256 208
WIRE 528 400 528 -32
WIRE 528 400 256 400
WIRE 1008 400 1008 320
WIRE 1008 400 528 400
WIRE -176 448 -176 256
WIRE 32 448 32 416
WIRE 32 448 -176 448
WIRE 32 480 32 448
WIRE -432 544 -432 208
WIRE -128 544 -432 544
WIRE 32 544 -128 544
WIRE 368 544 368 80
WIRE 368 544 32 544
WIRE 1120 544 1120 208
WIRE 1120 544 368 544
FLAG -432 16 in
IOPIN -432 16 In
FLAG 736 -64 out
IOPIN 736 -64 Out
FLAG -128 544 0
SYMBOL OpAmps\\OP727 528 -128 R0
WINDOW 0 -22 63 Left 2
SYMATTR InstName U1
SYMBOL OpAmps\\OP727 256 112 R0
SYMATTR InstName U2
SYMBOL OpAmps\\OP727 -96 176 R0
SYMATTR InstName U3
SYMBOL voltage -432 112 R0
WINDOW 3 -229 95 Left 2
WINDOW 123 -229 123 Left 2
WINDOW 39 0 0 Left 0
SYMATTR InstName V1
SYMATTR Value SINE(0 0.1 1000)
SYMATTR Value2 AC 0.1
SYMBOL res -32 -64 R90
WINDOW 0 0 56 VBottom 2
WINDOW 3 32 56 VTop 2
SYMATTR InstName R1
SYMATTR Value 3.92k
SYMBOL res 336 -64 R90
WINDOW 0 0 56 VBottom 2
WINDOW 3 32 56 VTop 2
SYMATTR InstName R2
SYMATTR Value 1.33k
SYMBOL res 16 -64 R0
SYMATTR InstName R3
SYMATTR Value 3.92k
SYMBOL res 16 48 R0
SYMATTR InstName R4
SYMATTR Value 3.92k
SYMBOL res 16 320 R0
SYMATTR InstName R5
SYMATTR Value 3.48k
SYMBOL cap 16 208 R0
SYMATTR InstName C1
SYMATTR Value 1nF
SYMBOL cap 352 16 R0
SYMATTR InstName C2
SYMATTR Value 1nF
SYMBOL cap 16 480 R0
SYMATTR InstName C3
SYMATTR Value 1nF
SYMBOL voltage 1008 96 R0
SYMATTR InstName V2
SYMATTR Value 5
SYMBOL voltage 1008 224 R0
WINDOW 123 0 0 Left 0
WINDOW 39 0 0 Left 0
SYMATTR InstName V3
SYMATTR Value 5
TEXT -424 80 Left 2 !.ac oct 5000 10 100k
